#======================================================================

# CRYSTAL DATA

#----------------------------------------------------------------------

data_VESTA_phase_1


_chemical_name_common                  'generated by phonopy                  '
_cell_length_a                         9.18669
_cell_length_b                         9.18672
_cell_length_c                         14.20806
_cell_angle_alpha                      90.77513
_cell_angle_beta                       90.77406
_cell_angle_gamma                      118.66287
_space_group_name_H-M_alt              'P 1'
_space_group_IT_number                 1

loop_
_space_group_symop_operation_xyz
   'x, y, z'

loop_
   _atom_site_label
   _atom_site_occupancy
   _atom_site_fract_x
   _atom_site_fract_y
   _atom_site_fract_z
   _atom_site_adp_type
   _atom_site_B_iso_or_equiv
   _atom_site_type_symbol
   C1         1.0     0.047421      0.201255      0.286576     Biso  1.000000 C
   C2         1.0     0.532144      0.193754      0.227960     Biso  1.000000 C
   C3         1.0     0.032144      0.693754      0.227960     Biso  1.000000 C
   C4         1.0     0.547421      0.701255      0.286576     Biso  1.000000 C
   C5         1.0     0.047421      0.201255      0.786576     Biso  1.000000 C
   C6         1.0     0.532144      0.193754      0.727960     Biso  1.000000 C
   C7         1.0     0.032144      0.693754      0.727960     Biso  1.000000 C
   C8         1.0     0.547421      0.701255      0.786576     Biso  1.000000 C
   C9         1.0     0.034259      0.459521      0.263025     Biso  1.000000 C
   C10        1.0     0.540468      0.465728      0.236977     Biso  1.000000 C
   C11        1.0     0.040467      0.965728      0.236977     Biso  1.000000 C
   C12        1.0     0.534259      0.959521      0.263025     Biso  1.000000 C
   C13        1.0     0.034259      0.459521      0.763025     Biso  1.000000 C
   C14        1.0     0.540468      0.465728      0.736977     Biso  1.000000 C
   C15        1.0     0.040467      0.965728      0.736977     Biso  1.000000 C
   C16        1.0     0.534259      0.959521      0.763025     Biso  1.000000 C
   C17        1.0     0.280231      0.211407      0.487288     Biso  1.000000 C
   C18        1.0     0.788605      0.219783      0.512710     Biso  1.000000 C
   C19        1.0     0.288605      0.719783      0.512710     Biso  1.000000 C
   C20        1.0     0.780231      0.711407      0.487288     Biso  1.000000 C
   C21        1.0     0.280231      0.211407      0.987288     Biso  1.000000 C
   C22        1.0     0.788605      0.219783      0.012710     Biso  1.000000 C
   C23        1.0     0.288605      0.719783      0.012710     Biso  1.000000 C
   C24        1.0     0.780231      0.711407      0.987288     Biso  1.000000 C
   C25        1.0     0.280817      0.448549      0.522069     Biso  1.000000 C
   C26        1.0     0.791544      0.451388      0.463380     Biso  1.000000 C
   C27        1.0     0.291544      0.951388      0.463380     Biso  1.000000 C
   C28        1.0     0.780817      0.948550      0.522069     Biso  1.000000 C
   C29        1.0     0.280817      0.448549      0.022069     Biso  1.000000 C
   C30        1.0     0.791544      0.451388      0.963380     Biso  1.000000 C
   C31        1.0     0.291544      0.951388      0.963380     Biso  1.000000 C
   C32        1.0     0.780817      0.948550      0.022069     Biso  1.000000 C
   C33        1.0     0.306232      0.467845      0.272042     Biso  1.000000 C
   C34        1.0     0.798735      0.452565      0.213426     Biso  1.000000 C
   C35        1.0     0.298735      0.952565      0.213426     Biso  1.000000 C
   C36        1.0     0.806232      0.967845      0.272042     Biso  1.000000 C
   C37        1.0     0.306232      0.467845      0.772042     Biso  1.000000 C
   C38        1.0     0.798735      0.452565      0.713426     Biso  1.000000 C
   C39        1.0     0.298735      0.952565      0.713426     Biso  1.000000 C
   C40        1.0     0.806232      0.967845      0.772042     Biso  1.000000 C
   C41        1.0     0.048624      0.208466      0.036618     Biso  1.000000 C
   C42        1.0     0.551462      0.219195      0.977929     Biso  1.000000 C
   C43        1.0     0.051462      0.719195      0.977929     Biso  1.000000 C
   C44        1.0     0.548624      0.708466      0.036618     Biso  1.000000 C
   C45        1.0     0.048624      0.208466      0.536618     Biso  1.000000 C
   C46        1.0     0.551462      0.219195      0.477929     Biso  1.000000 C
   C47        1.0     0.051462      0.719195      0.477929     Biso  1.000000 C
   C48        1.0     0.548624      0.708466      0.536618     Biso  1.000000 C
   N1         1.0     0.129865      0.371251      0.057717     Biso  1.000000 N
   N2         1.0     0.628763      0.370145      0.942283     Biso  1.000000 N
   N3         1.0     0.128763      0.870145      0.942283     Biso  1.000000 N
   N4         1.0     0.629865      0.871251      0.057717     Biso  1.000000 N
   N5         1.0     0.129865      0.371251      0.557717     Biso  1.000000 N
   N6         1.0     0.628763      0.370145      0.442283     Biso  1.000000 N
   N7         1.0     0.128763      0.870145      0.442283     Biso  1.000000 N
   N8         1.0     0.629865      0.871251      0.557717     Biso  1.000000 N
   N9         1.0     0.376121      0.393511      0.222751     Biso  1.000000 N
   N10        1.0     0.879815      0.367969      0.230433     Biso  1.000000 N
   N11        1.0     0.379815      0.867969      0.230433     Biso  1.000000 N
   N12        1.0     0.876121      0.893511      0.222751     Biso  1.000000 N
   N13        1.0     0.376121      0.393511      0.722751     Biso  1.000000 N
   N14        1.0     0.879815      0.367969      0.730433     Biso  1.000000 N
   N15        1.0     0.379815      0.867969      0.730433     Biso  1.000000 N
   N16        1.0     0.876121      0.893511      0.722751     Biso  1.000000 N
   N17        1.0     0.378418      0.113552      0.192197     Biso  1.000000 N
   N18        1.0     0.886436      0.121572      0.307804     Biso  1.000000 N
   N19        1.0     0.386436      0.621572      0.307804     Biso  1.000000 N
   N20        1.0     0.878418      0.613552      0.192197     Biso  1.000000 N
   N21        1.0     0.378418      0.113552      0.692197     Biso  1.000000 N
   N22        1.0     0.886436      0.121572      0.807804     Biso  1.000000 N
   N23        1.0     0.386436      0.621572      0.807804     Biso  1.000000 N
   N24        1.0     0.878418      0.613552      0.692197     Biso  1.000000 N
   N25        1.0     0.373786      0.127359      0.466964     Biso  1.000000 N
   N26        1.0     0.872652      0.126226      0.533033     Biso  1.000000 N
   N27        1.0     0.372652      0.626226      0.533033     Biso  1.000000 N
   N28        1.0     0.873786      0.627359      0.466964     Biso  1.000000 N
   N29        1.0     0.373786      0.127359      0.966964     Biso  1.000000 N
   N30        1.0     0.872652      0.126226      0.033033     Biso  1.000000 N
   N31        1.0     0.372652      0.626226      0.033033     Biso  1.000000 N
   N32        1.0     0.873786      0.627359      0.966964     Biso  1.000000 N
   N33        1.0     0.129430      0.376970      0.283126     Biso  1.000000 N
   N34        1.0     0.623017      0.370559      0.216879     Biso  1.000000 N
   N35        1.0     0.123017      0.870559      0.216879     Biso  1.000000 N
   N36        1.0     0.629430      0.876971      0.283126     Biso  1.000000 N
   N37        1.0     0.129430      0.376970      0.783126     Biso  1.000000 N
   N38        1.0     0.623017      0.370559      0.716879     Biso  1.000000 N
   N39        1.0     0.123017      0.870559      0.716879     Biso  1.000000 N
   N40        1.0     0.629430      0.876971      0.783126     Biso  1.000000 N
   N41        1.0     0.351349      0.374607      0.473063     Biso  1.000000 N
   N42        1.0     0.877510      0.371616      0.480125     Biso  1.000000 N
   N43        1.0     0.377510      0.871616      0.480125     Biso  1.000000 N
   N44        1.0     0.851349      0.874607      0.473063     Biso  1.000000 N
   N45        1.0     0.351349      0.374607      0.973063     Biso  1.000000 N
   N46        1.0     0.877510      0.371616      0.980125     Biso  1.000000 N
   N47        1.0     0.377510      0.871616      0.980125     Biso  1.000000 N
   N48        1.0     0.851349      0.874607      0.973063     Biso  1.000000 N
   N49        1.0     0.132018      0.120172      0.269568     Biso  1.000000 N
   N50        1.0     0.606477      0.123869      0.277249     Biso  1.000000 N
   N51        1.0     0.106477      0.623869      0.277249     Biso  1.000000 N
   N52        1.0     0.632018      0.620172      0.269568     Biso  1.000000 N
   N53        1.0     0.132018      0.120172      0.769568     Biso  1.000000 N
   N54        1.0     0.606477      0.123869      0.777250     Biso  1.000000 N
   N55        1.0     0.106477      0.623869      0.777250     Biso  1.000000 N
   N56        1.0     0.632018      0.620172      0.769568     Biso  1.000000 N
   N57        1.0     0.128395      0.122504      0.019873     Biso  1.000000 N
   N58        1.0     0.625407      0.148663      0.026936     Biso  1.000000 N
   N59        1.0     0.125407      0.648663      0.026936     Biso  1.000000 N
   N60        1.0     0.628395      0.622504      0.019873     Biso  1.000000 N
   N61        1.0     0.128395      0.122504      0.519873     Biso  1.000000 N
   N62        1.0     0.625407      0.148663      0.526936     Biso  1.000000 N
   N63        1.0     0.125407      0.648663      0.526936     Biso  1.000000 N
   N64        1.0     0.628395      0.622504      0.519873     Biso  1.000000 N
