#======================================================================

# CRYSTAL DATA

#----------------------------------------------------------------------

data_VESTA_phase_1


_chemical_name_common                  'generated by phonopy                  '
_cell_length_a                         8.04843
_cell_length_b                         4.68223
_cell_length_c                         6.98883
_cell_angle_alpha                      89.91331
_cell_angle_beta                       90
_cell_angle_gamma                      90
_space_group_name_H-M_alt              'P 1'
_space_group_IT_number                 1

loop_
_space_group_symop_operation_xyz
   'x, y, z'

loop_
   _atom_site_label
   _atom_site_occupancy
   _atom_site_fract_x
   _atom_site_fract_y
   _atom_site_fract_z
   _atom_site_adp_type
   _atom_site_B_iso_or_equiv
   _atom_site_type_symbol
   C1         1.0     0.096685      0.509001      0.008890     Biso  1.000000 C
   C2         1.0     0.596685      0.490999      0.991110     Biso  1.000000 C
   C3         1.0     0.332554      0.760811      0.961301     Biso  1.000000 C
   C4         1.0     0.823046      0.750496      0.075480     Biso  1.000000 C
   C5         1.0     0.323046      0.249504      0.924520     Biso  1.000000 C
   C6         1.0     0.832554      0.239189      0.038699     Biso  1.000000 C
   C7         1.0     0.096281      0.990962      0.508948     Biso  1.000000 C
   C8         1.0     0.596281      0.009038      0.491052     Biso  1.000000 C
   C9         1.0     0.322630      0.250852      0.424547     Biso  1.000000 C
   C10        1.0     0.832142      0.260622      0.538667     Biso  1.000000 C
   C11        1.0     0.332142      0.739378      0.461333     Biso  1.000000 C
   C12        1.0     0.822630      0.749148      0.575453     Biso  1.000000 C
   N1         1.0     0.402229      0.997905      0.901100     Biso  1.000000 N
   N2         1.0     0.902229      0.002095      0.098900     Biso  1.000000 N
   N3         1.0     0.423167      0.498872      0.945277     Biso  1.000000 N
   N4         1.0     0.923167      0.501128      0.054723     Biso  1.000000 N
   N5         1.0     0.158940      0.272957      0.926557     Biso  1.000000 N
   N6         1.0     0.680564      0.256558      0.959608     Biso  1.000000 N
   N7         1.0     0.180564      0.743442      0.040392     Biso  1.000000 N
   N8         1.0     0.658940      0.727043      0.073443     Biso  1.000000 N
   N9         1.0     0.401807      0.502548      0.401154     Biso  1.000000 N
   N10        1.0     0.901807      0.497452      0.598846     Biso  1.000000 N
   N11        1.0     0.422757      0.001382      0.445230     Biso  1.000000 N
   N12        1.0     0.922757      0.998618      0.554770     Biso  1.000000 N
   N13        1.0     0.158524      0.227363      0.426599     Biso  1.000000 N
   N14        1.0     0.680173      0.243602      0.459514     Biso  1.000000 N
   N15        1.0     0.180173      0.756398      0.540486     Biso  1.000000 N
   N16        1.0     0.658524      0.772637      0.573401     Biso  1.000000 N
