#======================================================================

# CRYSTAL DATA

#----------------------------------------------------------------------

data_VESTA_phase_1


_chemical_name_common                  'generated by phonopy                  '
_cell_length_a                         6.94326
_cell_length_b                         6.97155
_cell_length_c                         7.27737
_cell_angle_alpha                      75.86328
_cell_angle_beta                       97.06004
_cell_angle_gamma                      120.13473
_space_group_name_H-M_alt              'P 1'
_space_group_IT_number                 1

loop_
_space_group_symop_operation_xyz
   'x, y, z'

loop_
   _atom_site_label
   _atom_site_occupancy
   _atom_site_fract_x
   _atom_site_fract_y
   _atom_site_fract_z
   _atom_site_adp_type
   _atom_site_B_iso_or_equiv
   _atom_site_type_symbol
   C1         1.0     0.051638      0.525802      0.000009     Biso  1.000000 C
   C2         1.0     0.408304      0.874107      0.027056     Biso  1.000000 C
   C3         1.0     0.408282      0.534163      0.972942     Biso  1.000000 C
   C4         1.0     0.734475      0.545772      0.939008     Biso  1.000000 C
   C5         1.0     0.734523      0.188699      0.061014     Biso  1.000000 C
   C6         1.0     0.390013      0.194997      0.999993     Biso  1.000000 C
   C7         1.0     0.158080      0.226236      0.561360     Biso  1.000000 C
   C8         1.0     0.158029      0.931848      0.438626     Biso  1.000000 C
   C9         1.0     0.812982      0.906501      0.500007     Biso  1.000000 C
   C10        1.0     0.832191      0.230879      0.531099     Biso  1.000000 C
   C11        1.0     0.475223      0.237624      0.499995     Biso  1.000000 C
   C12        1.0     0.832164      0.601327      0.468896     Biso  1.000000 C
   N1         1.0     0.293898      0.646933      0.000005     Biso  1.000000 N
   N2         1.0     0.625108      0.964585      0.077057     Biso  1.000000 N
   N3         1.0     0.284853      0.310796      0.992134     Biso  1.000000 N
   N4         1.0     0.952901      0.642270      0.902670     Biso  1.000000 N
   N5         1.0     0.621059      0.310516      0.000016     Biso  1.000000 N
   N6         1.0     0.048735      0.332238      0.580133     Biso  1.000000 N
   N7         1.0     0.377269      0.069548      0.406178     Biso  1.000000 N
   N8         1.0     0.707776      0.692061      0.483819     Biso  1.000000 N
   N9         1.0     0.044447      0.022235      0.500000     Biso  1.000000 N
   N10        1.0     0.718020      0.359024      0.499995     Biso  1.000000 N
   N11        1.0     0.952981      0.310634      0.097348     Biso  1.000000 N
   N12        1.0     0.284865      0.974047      0.007824     Biso  1.000000 N
   N13        1.0     0.625051      0.660467      0.922965     Biso  1.000000 N
   N14        1.0     0.707790      0.015744      0.516195     Biso  1.000000 N
   N15        1.0     0.377347      0.307786      0.593811     Biso  1.000000 N
   N16        1.0     0.048663      0.716494      0.419846     Biso  1.000000 N
