#======================================================================

# CRYSTAL DATA

#----------------------------------------------------------------------

data_VESTA_phase_1


_chemical_name_common                  'generated by phonopy                  '
_cell_length_a                         8.26852
_cell_length_b                         4.70744
_cell_length_c                         6.59732
_cell_angle_alpha                      90.35534
_cell_angle_beta                       90
_cell_angle_gamma                      90
_space_group_name_H-M_alt              'P 1'
_space_group_IT_number                 1

loop_
_space_group_symop_operation_xyz
   'x, y, z'

loop_
   _atom_site_label
   _atom_site_occupancy
   _atom_site_fract_x
   _atom_site_fract_y
   _atom_site_fract_z
   _atom_site_adp_type
   _atom_site_B_iso_or_equiv
   _atom_site_type_symbol
   C1         1.0     0.156526      0.502054      0.999046     Biso  1.000000 C
   C2         1.0     0.656526      0.497946      0.000954     Biso  1.000000 C
   C3         1.0     0.389890      0.755184      0.011812     Biso  1.000000 C
   C4         1.0     0.888254      0.753905      0.030480     Biso  1.000000 C
   C5         1.0     0.388254      0.246095      0.969520     Biso  1.000000 C
   C6         1.0     0.889890      0.244816      0.988188     Biso  1.000000 C
   C7         1.0     0.034739      0.998245      0.502879     Biso  1.000000 C
   C8         1.0     0.534739      0.001755      0.497121     Biso  1.000000 C
   C9         1.0     0.265488      0.253965      0.468591     Biso  1.000000 C
   C10        1.0     0.767466      0.255049      0.489704     Biso  1.000000 C
   C11        1.0     0.267466      0.744951      0.510296     Biso  1.000000 C
   C12        1.0     0.765488      0.746035      0.531409     Biso  1.000000 C
   N1         1.0     0.464422      0.999046      0.983259     Biso  1.000000 N
   N2         1.0     0.964422      0.000954      0.016741     Biso  1.000000 N
   N3         1.0     0.481921      0.499369      0.993312     Biso  1.000000 N
   N4         1.0     0.981921      0.500631      0.006688     Biso  1.000000 N
   N5         1.0     0.229902      0.269251      0.930372     Biso  1.000000 N
   N6         1.0     0.732694      0.266538      0.939480     Biso  1.000000 N
   N7         1.0     0.232694      0.733462      0.060520     Biso  1.000000 N
   N8         1.0     0.729902      0.730749      0.069628     Biso  1.000000 N
   N9         1.0     0.342350      0.501218      0.479413     Biso  1.000000 N
   N10        1.0     0.842350      0.498782      0.520587     Biso  1.000000 N
   N11        1.0     0.359758      0.000789      0.489788     Biso  1.000000 N
   N12        1.0     0.859758      0.999211      0.510212     Biso  1.000000 N
   N13        1.0     0.106926      0.230202      0.434183     Biso  1.000000 N
   N14        1.0     0.611164      0.232598      0.437237     Biso  1.000000 N
   N15        1.0     0.111164      0.767402      0.562763     Biso  1.000000 N
   N16        1.0     0.606926      0.769798      0.565817     Biso  1.000000 N
